
#======================================================================
# CRYSTAL DATA
#----------------------------------------------------------------------
data_VESTA_phase_1

_chemical_name_common                  'POSCAR file written by OVITO Basic 3.8'
_cell_length_a                         15.690356
_cell_length_b                         17.919821
_cell_length_c                         40.196430
_cell_angle_alpha                      90.000000
_cell_angle_beta                       90.000000
_cell_angle_gamma                      90.000000
_cell_volume                           11301.964847
_space_group_name_H-M_alt              'P 1'
_space_group_IT_number                 1

loop_
_space_group_symop_operation_xyz
   'x, y, z'

loop_
   _atom_site_label
   _atom_site_occupancy
   _atom_site_fract_x
   _atom_site_fract_y
   _atom_site_fract_z
   _atom_site_adp_type
   _atom_site_U_iso_or_equiv
   _atom_site_type_symbol
   C1         1.0     0.251255     0.237146     0.058844    Uiso  ? C
   C2         1.0     0.009573     0.128836     0.058844    Uiso  ? C
   C3         1.0     0.275556     0.007947     0.595946    Uiso  ? C
   C4         1.0     0.013812     0.157268     0.595364    Uiso  ? C
   C5         1.0     0.263568     0.258374     0.597892    Uiso  ? C
   C6         1.0     0.243358     0.480424     0.058844    Uiso  ? C
   C7         1.0     0.001408     0.379664     0.058844    Uiso  ? C
   C8         1.0     0.000673     0.616960     0.058844    Uiso  ? C
   C9         1.0     0.267889     0.516278     0.593804    Uiso  ? C
   C10        1.0     0.251172     0.736353     0.058844    Uiso  ? C
   C11        1.0     0.002347     0.880673     0.058844    Uiso  ? C
   C12        1.0     0.236577    -0.022340     0.058844    Uiso  ? C
   C13        1.0     0.261529     0.765739     0.594979    Uiso  ? C
   C14        1.0     0.010976     0.914167     0.593240    Uiso  ? C
   C15        1.0     0.520254     0.671202     0.595558    Uiso  ? C
   C16        1.0    -0.244239     0.280584     0.058844    Uiso  ? C
   C17        1.0     0.500306     0.137323     0.058844    Uiso  ? C
   C18        1.0    -0.249140     0.034672     0.058844    Uiso  ? C
   C19        1.0     0.508094     0.172765     0.596120    Uiso  ? C
   C20        1.0    -0.236133     0.075799     0.596210    Uiso  ? C
   C21        1.0    -0.234033     0.320255     0.595237    Uiso  ? C
   C22        1.0     0.504557     0.386165     0.058844    Uiso  ? C
   C23        1.0    -0.254578     0.535927     0.058844    Uiso  ? C
   C24        1.0     0.497731     0.630264     0.058844    Uiso  ? C
   C25        1.0     0.502065     0.422315     0.597989    Uiso  ? C
   C26        1.0     0.015669     0.658132     0.596175    Uiso  ? C
   C27        1.0    -0.232021     0.568059     0.594561    Uiso  ? C
   C28        1.0     0.021514     0.412343     0.595946    Uiso  ? C
   C29        1.0     0.496259     0.886650     0.058844    Uiso  ? C
   C30        1.0    -0.260014     0.795126     0.058844    Uiso  ? C
   C31        1.0    -0.233857     0.820260     0.594899    Uiso  ? C
   C32        1.0     0.524200     0.922376     0.595342    Uiso  ? C
   C33        1.0     0.262988     0.272347     0.154722    Uiso  ? C
   C34        1.0     0.250140     0.015983     0.216419    Uiso  ? C
   C35        1.0     0.263046     0.216833     0.248426    Uiso  ? C
   C36        1.0     0.244091     0.020564     0.153732    Uiso  ? C
   C37        1.0     0.005485     0.121229     0.185220    Uiso  ? C
   C38        1.0     0.002434     0.170153     0.154257    Uiso  ? C
   C39        1.0     0.003311     0.122937     0.122609    Uiso  ? C
   C40        1.0     0.004943     0.171961     0.091533    Uiso  ? C
   C41        1.0     0.006051     0.118004     0.248280    Uiso  ? C
   C42        1.0     0.005357     0.167045     0.217176    Uiso  ? C
   C43        1.0     0.257883     0.231794     0.121367    Uiso  ? C
   C44        1.0     0.237922     0.024214     0.090634    Uiso  ? C
   C45        1.0     0.262720     0.265444     0.217132    Uiso  ? C
   C46        1.0     0.258450     0.282515     0.090889    Uiso  ? C
   C47        1.0     0.259719     0.220527     0.184958    Uiso  ? C
   C48        1.0     0.009355     0.165125     0.279739    Uiso  ? C
   C49        1.0     0.010545     0.119081     0.311598    Uiso  ? C
   C50        1.0     0.010058     0.121988     0.374688    Uiso  ? C
   C51        1.0     0.008952     0.165867     0.469736    Uiso  ? C
   C52        1.0     0.009869     0.120476     0.437629    Uiso  ? C
   C53        1.0     0.262064     0.270249     0.407519    Uiso  ? C
   C54        1.0     0.260541     0.269585     0.343474    Uiso  ? C
   C55        1.0     0.007845     0.167670     0.342755    Uiso  ? C
   C56        1.0     0.006009     0.168819     0.406370    Uiso  ? C
   C57        1.0     0.253358     0.013421     0.280015    Uiso  ? C
   C58        1.0     0.265053     0.223513     0.375524    Uiso  ? C
   C59        1.0     0.266621     0.264239     0.280025    Uiso  ? C
   C60        1.0     0.264945     0.018879     0.469142    Uiso  ? C
   C61        1.0     0.258144     0.012551     0.342991    Uiso  ? C
   C62        1.0     0.264008     0.014097     0.406158    Uiso  ? C
   C63        1.0     0.256672     0.270344     0.471383    Uiso  ? C
   C64        1.0     0.261688     0.220282     0.312351    Uiso  ? C
   C65        1.0     0.264378     0.223998     0.439410    Uiso  ? C
   C66        1.0     0.014221     0.116603     0.500570    Uiso  ? C
   C67        1.0     0.272523     0.016491     0.533346    Uiso  ? C
   C68        1.0     0.019018     0.111006     0.563632    Uiso  ? C
   C69        1.0     0.264588     0.214807     0.565170    Uiso  ? C
   C70        1.0     0.266207     0.222380     0.502635    Uiso  ? C
   C71        1.0     0.014602     0.160962     0.532961    Uiso  ? C
   C72        1.0     0.264658     0.266499     0.535108    Uiso  ? C
   C73        1.0     0.261624     0.473755     0.184969    Uiso  ? C
   C74        1.0     0.253651     0.476222     0.122351    Uiso  ? C
   C75        1.0     0.007675     0.373486     0.122115    Uiso  ? C
   C76        1.0     0.262466     0.517930     0.217308    Uiso  ? C
   C77        1.0     0.252198     0.524883     0.091157    Uiso  ? C
   C78        1.0     0.006882     0.419592     0.154169    Uiso  ? C
   C79        1.0     0.006240     0.624008     0.186195    Uiso  ? C
   C80        1.0     0.264116     0.467851     0.247961    Uiso  ? C
   C81        1.0     0.253492     0.522439     0.154004    Uiso  ? C
   C82        1.0     0.007745     0.629895     0.249329    Uiso  ? C
   C83        1.0     0.001418     0.620727     0.122633    Uiso  ? C
   C84        1.0     0.000829     0.423236     0.091398    Uiso  ? C
   C85        1.0     0.006839     0.421869     0.217365    Uiso  ? C
   C86        1.0     0.011040     0.373972     0.186095    Uiso  ? C
   C87        1.0     0.010766     0.374028     0.248399    Uiso  ? C
   C88        1.0     0.004258     0.674103     0.216926    Uiso  ? C
   C89        1.0     0.257150     0.513834     0.279605    Uiso  ? C
   C90        1.0     0.009281     0.623801     0.375004    Uiso  ? C
   C91        1.0     0.011014     0.368453     0.374073    Uiso  ? C
   C92        1.0     0.252434     0.472193     0.373817    Uiso  ? C
   C93        1.0     0.251191     0.475697     0.435502    Uiso  ? C
   C94        1.0     0.009619     0.416701     0.342944    Uiso  ? C
   C95        1.0     0.010017     0.370216     0.437435    Uiso  ? C
   C96        1.0     0.261357     0.466473     0.310904    Uiso  ? C
   C97        1.0     0.262580     0.521390     0.467014    Uiso  ? C
   C98        1.0     0.007042     0.417254     0.469221    Uiso  ? C
   C99        1.0     0.006261     0.626491     0.311730    Uiso  ? C
   C100       1.0     0.009897     0.421238     0.279657    Uiso  ? C
   C101       1.0     0.254136     0.515597     0.341483    Uiso  ? C
   C102       1.0     0.017876     0.372806     0.310727    Uiso  ? C
   C103       1.0     0.012754     0.622440     0.437047    Uiso  ? C
   C104       1.0     0.252032     0.522829     0.404123    Uiso  ? C
   C105       1.0     0.006846     0.416244     0.405524    Uiso  ? C
   C106       1.0     0.008061     0.667345     0.469221    Uiso  ? C
   C107       1.0     0.004907     0.676665     0.281085    Uiso  ? C
   C108       1.0     0.018810     0.368514     0.563329    Uiso  ? C
   C109       1.0     0.016208     0.370646     0.500642    Uiso  ? C
   C110       1.0     0.008215     0.619259     0.500642    Uiso  ? C
   C111       1.0     0.261809     0.520145     0.530291    Uiso  ? C
   C112       1.0     0.014431     0.616513     0.562966    Uiso  ? C
   C113       1.0     0.016040     0.417750     0.532257    Uiso  ? C
   C114       1.0     0.260273     0.472020     0.561707    Uiso  ? C
   C115       1.0     0.515844     0.623779     0.564190    Uiso  ? C
   C116       1.0     0.258635     0.474018     0.498343    Uiso  ? C
   C117       1.0     0.004624     0.665549     0.532369    Uiso  ? C
   C118       1.0     0.253517     0.721777     0.246985    Uiso  ? C
   C119       1.0     0.244850     0.781052     0.090840    Uiso  ? C
   C120       1.0    -0.000245     0.669371     0.153960    Uiso  ? C
   C121       1.0     0.006777     0.874066     0.248337    Uiso  ? C
   C122       1.0     0.249585     0.773970     0.153497    Uiso  ? C
   C123       1.0     0.242154    -0.024558     0.121658    Uiso  ? C
   C124       1.0    -0.003450     0.921835     0.153277    Uiso  ? C
   C125       1.0     0.001018     0.875389     0.121530    Uiso  ? C
   C126       1.0    -0.001859     0.924882     0.090952    Uiso  ? C
   C127       1.0     0.245831    -0.029340     0.184473    Uiso  ? C
   C128       1.0     0.006241     0.920791     0.216462    Uiso  ? C
   C129       1.0     0.001363     0.874619     0.184798    Uiso  ? C
   C130       1.0     0.252568    -0.032302     0.247796    Uiso  ? C
   C131       1.0     0.255366     0.723652     0.183838    Uiso  ? C
   C132       1.0     0.249011     0.730399     0.121211    Uiso  ? C
   C133       1.0     0.251605     0.769768     0.215744    Uiso  ? C
   C134       1.0    -0.002410     0.665392     0.090228    Uiso  ? C
   C135       1.0     0.262408     0.720633     0.437890    Uiso  ? C
   C136       1.0     0.005487     0.872163     0.311498    Uiso  ? C
   C137       1.0     0.256462    -0.034477     0.311543    Uiso  ? C
   C138       1.0     0.011747     0.874870     0.374479    Uiso  ? C
   C139       1.0     0.018073     0.873843     0.436275    Uiso  ? C
   C140       1.0     0.268068     0.770466     0.468507    Uiso  ? C
   C141       1.0     0.008408     0.920205     0.280167    Uiso  ? C
   C142       1.0     0.010998     0.922778     0.405725    Uiso  ? C
   C143       1.0     0.005459     0.920462     0.342615    Uiso  ? C
   C144       1.0     0.261293    -0.033794     0.374787    Uiso  ? C
   C145       1.0     0.259196     0.719199     0.310264    Uiso  ? C
   C146       1.0     0.261612     0.765170     0.342115    Uiso  ? C
   C147       1.0     0.012831     0.918570     0.468303    Uiso  ? C
   C148       1.0     0.264868     0.764830     0.405280    Uiso  ? C
   C149       1.0     0.258705    -0.030677     0.438256    Uiso  ? C
   C150       1.0     0.254798     0.767681     0.279030    Uiso  ? C
   C151       1.0     0.264709     0.717703     0.373750    Uiso  ? C
   C152       1.0     0.009411     0.671665     0.343837    Uiso  ? C
   C153       1.0     0.013789     0.671319     0.406230    Uiso  ? C
   C154       1.0     0.020722     0.868078     0.561757    Uiso  ? C
   C155       1.0     0.260515     0.771833     0.532063    Uiso  ? C
   C156       1.0     0.259693     0.721821     0.562759    Uiso  ? C
   C157       1.0     0.016541     0.916427     0.530811    Uiso  ? C
   C158       1.0     0.271324    -0.035254     0.563486    Uiso  ? C
   C159       1.0     0.019360     0.870338     0.499241    Uiso  ? C
   C160       1.0     0.258731     0.725359     0.500435    Uiso  ? C
   C161       1.0     0.269680    -0.027724     0.500945    Uiso  ? C
   C162       1.0    -0.243269     0.271756     0.121341    Uiso  ? C
   C163       1.0    -0.246915     0.267632     0.184902    Uiso  ? C
   C164       1.0    -0.240190     0.315584     0.153585    Uiso  ? C
   C165       1.0    -0.244044     0.075492     0.154547    Uiso  ? C
   C166       1.0    -0.241297     0.323369     0.091325    Uiso  ? C
   C167       1.0     0.499420     0.127591     0.249425    Uiso  ? C
   C168       1.0    -0.245575     0.071837     0.217714    Uiso  ? C
   C169       1.0     0.505570     0.179299     0.154364    Uiso  ? C
   C170       1.0     0.500988     0.135939     0.121697    Uiso  ? C
   C171       1.0     0.502645     0.184751     0.090393    Uiso  ? C
   C172       1.0    -0.244074     0.314920     0.216650    Uiso  ? C
   C173       1.0    -0.245383     0.270723     0.249313    Uiso  ? C
   C174       1.0     0.500727     0.130091     0.185387    Uiso  ? C
   C175       1.0    -0.245446     0.024588     0.249439    Uiso  ? C
   C176       1.0     0.505328     0.174807     0.217763    Uiso  ? C
   C177       1.0    -0.250931     0.077747     0.091609    Uiso  ? C
   C178       1.0    -0.245556     0.029091     0.122790    Uiso  ? C
   C179       1.0    -0.244424     0.026307     0.185458    Uiso  ? C
   C180       1.0    -0.237470     0.279401     0.437661    Uiso  ? C
   C181       1.0    -0.234808     0.071731     0.470880    Uiso  ? C
   C182       1.0     0.506800     0.127831     0.311692    Uiso  ? C
   C183       1.0    -0.243994     0.322253     0.279776    Uiso  ? C
   C184       1.0    -0.245339     0.278759     0.312538    Uiso  ? C
   C185       1.0    -0.238640     0.279177     0.374785    Uiso  ? C
   C186       1.0     0.507355     0.124890     0.374663    Uiso  ? C
   C187       1.0    -0.242761     0.325757     0.469244    Uiso  ? C
   C188       1.0    -0.237774     0.025726     0.438965    Uiso  ? C
   C189       1.0    -0.240127     0.276465     0.500055    Uiso  ? C
   C190       1.0     0.514378     0.173457     0.469107    Uiso  ? C
   C191       1.0    -0.241652     0.024024     0.313041    Uiso  ? C
   C192       1.0     0.504538     0.126576     0.437696    Uiso  ? C
   C193       1.0    -0.246455     0.073941     0.407755    Uiso  ? C
   C194       1.0     0.511810     0.173122     0.343533    Uiso  ? C
   C195       1.0     0.512090     0.172441     0.406076    Uiso  ? C
   C196       1.0    -0.243363     0.027278     0.376039    Uiso  ? C
   C197       1.0    -0.240841     0.326042     0.406263    Uiso  ? C
   C198       1.0    -0.243161     0.072953     0.344051    Uiso  ? C
   C199       1.0     0.502517     0.175940     0.280632    Uiso  ? C
   C200       1.0    -0.243284     0.070877     0.281329    Uiso  ? C
   C201       1.0    -0.243856     0.327046     0.343531    Uiso  ? C
   C202       1.0     0.514187     0.125002     0.500480    Uiso  ? C
   C203       1.0    -0.231421     0.025509     0.565842    Uiso  ? C
   C204       1.0     0.504888     0.126564     0.564267    Uiso  ? C
   C205       1.0    -0.236278     0.071357     0.533891    Uiso  ? C
   C206       1.0     0.519802     0.171180     0.532471    Uiso  ? C
   C207       1.0    -0.237477     0.272464     0.564038    Uiso  ? C
   C208       1.0    -0.239868     0.320461     0.532488    Uiso  ? C
   C209       1.0    -0.238053     0.024281     0.502460    Uiso  ? C
   C210       1.0     0.500943     0.634968     0.122096    Uiso  ? C
   C211       1.0     0.509528     0.382683     0.121778    Uiso  ? C
   C212       1.0     0.507584     0.381896     0.184855    Uiso  ? C
   C213       1.0     0.504219     0.377644     0.248518    Uiso  ? C
   C214       1.0     0.504085     0.629784     0.184849    Uiso  ? C
   C215       1.0     0.500446     0.629081     0.247467    Uiso  ? C
   C216       1.0     0.504162     0.429408     0.153474    Uiso  ? C
   C217       1.0    -0.244821     0.523354     0.247624    Uiso  ? C
   C218       1.0    -0.253379     0.535424     0.122113    Uiso  ? C
   C219       1.0    -0.259361     0.582875     0.090655    Uiso  ? C
   C220       1.0    -0.244155     0.574404     0.217245    Uiso  ? C
   C221       1.0    -0.249068     0.530151     0.184823    Uiso  ? C
   C222       1.0     0.505379     0.431880     0.090930    Uiso  ? C
   C223       1.0     0.511281     0.426489     0.217383    Uiso  ? C
   C224       1.0    -0.251344     0.580654     0.154438    Uiso  ? C
   C225       1.0    -0.239970     0.574331     0.468241    Uiso  ? C
   C226       1.0    -0.244766     0.568483     0.279617    Uiso  ? C
   C227       1.0     0.503015     0.422120     0.470547    Uiso  ? C
   C228       1.0    -0.243978     0.571574     0.404875    Uiso  ? C
   C229       1.0     0.502715     0.373721     0.375534    Uiso  ? C
   C230       1.0    -0.246535     0.521769     0.311125    Uiso  ? C
   C231       1.0     0.503945     0.626078     0.310399    Uiso  ? C
   C232       1.0     0.502753     0.373436     0.439308    Uiso  ? C
   C233       1.0    -0.248110     0.570509     0.341879    Uiso  ? C
   C234       1.0     0.506042     0.419642     0.407566    Uiso  ? C
   C235       1.0     0.505194     0.377326     0.312807    Uiso  ? C
   C236       1.0     0.506125     0.423414     0.280702    Uiso  ? C
   C237       1.0    -0.243754     0.523694     0.373449    Uiso  ? C
   C238       1.0     0.511829     0.625381     0.437517    Uiso  ? C
   C239       1.0     0.508942     0.423074     0.344847    Uiso  ? C
   C240       1.0     0.507610     0.622769     0.373790    Uiso  ? C
   C241       1.0    -0.246231     0.526619     0.436997    Uiso  ? C
   C242       1.0     0.511542     0.625716     0.500607    Uiso  ? C
   C243       1.0     0.506112     0.375981     0.566332    Uiso  ? C
   C244       1.0    -0.238590     0.570057     0.531553    Uiso  ? C
   C245       1.0    -0.233463     0.521144     0.562762    Uiso  ? C
   C246       1.0     0.500803     0.423883     0.535025    Uiso  ? C
   C247       1.0    -0.239702     0.525268     0.499366    Uiso  ? C
   C248       1.0     0.502562     0.377086     0.503135    Uiso  ? C
   C249       1.0     0.498413     0.679929     0.089813    Uiso  ? C
   C250       1.0    -0.248655     0.830154     0.154743    Uiso  ? C
   C251       1.0    -0.242183     0.780555     0.185658    Uiso  ? C
   C252       1.0    -0.250722     0.788558     0.121627    Uiso  ? C
   C253       1.0    -0.244903     0.826421     0.217538    Uiso  ? C
   C254       1.0     0.502033     0.931673     0.153877    Uiso  ? C
   C255       1.0     0.495571     0.885992     0.121927    Uiso  ? C
   C256       1.0     0.496890     0.933832     0.090410    Uiso  ? C
   C257       1.0    -0.255678     0.839869     0.091072    Uiso  ? C
   C258       1.0     0.506819     0.676564     0.216341    Uiso  ? C
   C259       1.0     0.501307     0.930830     0.216687    Uiso  ? C
   C260       1.0     0.497973     0.883905     0.185289    Uiso  ? C
   C261       1.0     0.497655     0.880021     0.246706    Uiso  ? C
   C262       1.0     0.503990     0.680192     0.154219    Uiso  ? C
   C263       1.0    -0.242522     0.776381     0.248126    Uiso  ? C
   C264       1.0    -0.243511     0.820606     0.280590    Uiso  ? C
   C265       1.0     0.503811     0.875757     0.309876    Uiso  ? C
   C266       1.0     0.511752     0.670872     0.342406    Uiso  ? C
   C267       1.0     0.507877     0.876985     0.373041    Uiso  ? C
   C268       1.0    -0.244030     0.772274     0.311879    Uiso  ? C
   C269       1.0     0.518043     0.878045     0.436270    Uiso  ? C
   C270       1.0     0.507278     0.674846     0.279266    Uiso  ? C
   C271       1.0    -0.237174     0.769925     0.438226    Uiso  ? C
   C272       1.0    -0.232585     0.816387     0.406643    Uiso  ? C
   C273       1.0     0.505048     0.924033     0.278801    Uiso  ? C
   C274       1.0    -0.233266     0.818284     0.469375    Uiso  ? C
   C275       1.0     0.515678     0.924720     0.404395    Uiso  ? C
   C276       1.0     0.510898     0.923319     0.341135    Uiso  ? C
   C277       1.0    -0.237695     0.817977     0.343854    Uiso  ? C
   C278       1.0    -0.238252     0.769880     0.374976    Uiso  ? C
   C279       1.0     0.522925     0.923671     0.468589    Uiso  ? C
   C280       1.0     0.517042     0.670258     0.405198    Uiso  ? C
   C281       1.0     0.517743     0.672814     0.469104    Uiso  ? C
   C282       1.0     0.512294     0.878324     0.563309    Uiso  ? C
   C283       1.0     0.519324     0.924390     0.531239    Uiso  ? C
   C284       1.0    -0.237437     0.823111     0.532170    Uiso  ? C
   C285       1.0    -0.241441     0.774556     0.563140    Uiso  ? C
   C286       1.0    -0.241691     0.774043     0.501324    Uiso  ? C
   C287       1.0     0.517998     0.875874     0.499908    Uiso  ? C
   C288       1.0     0.514060     0.671508     0.532702    Uiso  ? C
   H1         1.0     0.291968     0.063310     0.090578    Uiso  ? H
   H2         1.0     0.180018     0.058383     0.091680    Uiso  ? H
   H3         1.0     0.320406     0.300444     0.217253    Uiso  ? H
   H4         1.0     0.301496     0.056357     0.154100    Uiso  ? H
   H5         1.0     0.188567     0.057959     0.154888    Uiso  ? H
   H6         1.0     0.316856     0.316159     0.090338    Uiso  ? H
   H7         1.0     0.006489     0.167435     0.037473    Uiso  ? H
   H8         1.0     0.440651     0.098389     0.184864    Uiso  ? H
   H9         1.0     0.069550     0.096904     0.056599    Uiso  ? H
   H10        1.0     0.194717     0.200728     0.059973    Uiso  ? H
   H11        1.0     0.209930     0.312520     0.156394    Uiso  ? H
   H12        1.0     0.057869     0.207687     0.154079    Uiso  ? H
   H13        1.0     0.200593     0.187263     0.183988    Uiso  ? H
   H14        1.0     0.198930     0.198016     0.121223    Uiso  ? H
   H15        1.0     0.441231     0.104544     0.057886    Uiso  ? H
   H16        1.0     0.307340     0.051871     0.215816    Uiso  ? H
   H17        1.0     0.243855     0.273290     0.036952    Uiso  ? H
   H18        1.0     0.317793     0.178551     0.247748    Uiso  ? H
   H19        1.0     0.204060     0.321332     0.092351    Uiso  ? H
   H20        1.0     0.439326     0.095621     0.249490    Uiso  ? H
   H21        1.0     0.452659     0.219679     0.154912    Uiso  ? H
   H22        1.0     0.447350     0.222508     0.090778    Uiso  ? H
   H23        1.0     0.059647     0.086229     0.123059    Uiso  ? H
   H24        1.0     0.059698     0.210231     0.093135    Uiso  ? H
   H25        1.0     0.454278     0.216973     0.217780    Uiso  ? H
   H26        1.0     0.061051     0.205159     0.217513    Uiso  ? H
   H27        1.0     0.062285     0.085247     0.184824    Uiso  ? H
   H28        1.0     0.194857     0.054013     0.217724    Uiso  ? H
   H29        1.0     0.062060     0.081218     0.247423    Uiso  ? H
   H30        1.0     0.207559     0.303447     0.218240    Uiso  ? H
   H31        1.0     0.322024     0.304870     0.155921    Uiso  ? H
   H32        1.0     0.311241     0.191654     0.119664    Uiso  ? H
   H33        1.0     0.307876     0.201772     0.055329    Uiso  ? H
   H34        1.0     0.314255     0.181582     0.184328    Uiso  ? H
   H35        1.0     0.441939     0.102463     0.121437    Uiso  ? H
   H36        1.0     0.204997     0.182363     0.249151    Uiso  ? H
   H37        1.0     0.068100     0.338441     0.247758    Uiso  ? H
   H38        1.0     0.066471     0.200968     0.278776    Uiso  ? H
   H39        1.0     0.211007     0.054666     0.405417    Uiso  ? H
   H40        1.0     0.196196     0.048745     0.280443    Uiso  ? H
   H41        1.0     0.316333     0.181933     0.313991    Uiso  ? H
   H42        1.0     0.446215     0.212798     0.281244    Uiso  ? H
   H43        1.0     0.068733     0.084616     0.312287    Uiso  ? H
   H44        1.0     0.211746     0.183345     0.438962    Uiso  ? H
   H45        1.0     0.324000     0.190750     0.440321    Uiso  ? H
   H46        1.0     0.202894     0.303865     0.407437    Uiso  ? H
   H47        1.0     0.194870     0.298759     0.471617    Uiso  ? H
   H48        1.0     0.204258     0.184617     0.312018    Uiso  ? H
   H49        1.0     0.450237     0.091821     0.312498    Uiso  ? H
   H50        1.0     0.309571     0.050414     0.279846    Uiso  ? H
   H51        1.0     0.446885     0.093294     0.374852    Uiso  ? H
   H52        1.0     0.068948     0.089025     0.375307    Uiso  ? H
   H53        1.0     0.061569     0.207000     0.341991    Uiso  ? H
   H54        1.0     0.063578     0.204712     0.469535    Uiso  ? H
   H55        1.0     0.306423     0.313704     0.471346    Uiso  ? H
   H56        1.0     0.324924     0.298179     0.279916    Uiso  ? H
   H57        1.0     0.209357     0.056184     0.470077    Uiso  ? H
   H58        1.0     0.213231     0.303955     0.278926    Uiso  ? H
   H59        1.0     0.321668     0.054767     0.467432    Uiso  ? H
   H60        1.0     0.212473     0.182341     0.375685    Uiso  ? H
   H61        1.0     0.314045     0.049783     0.342523    Uiso  ? H
   H62        1.0     0.059893     0.208200     0.406636    Uiso  ? H
   H63        1.0     0.200925     0.048187     0.343354    Uiso  ? H
   H64        1.0     0.201995     0.303848     0.343668    Uiso  ? H
   H65        1.0     0.314797     0.308151     0.342725    Uiso  ? H
   H66        1.0     0.068742     0.086603     0.437305    Uiso  ? H
   H67        1.0     0.314861     0.310472     0.407402    Uiso  ? H
   H68        1.0     0.325530     0.191582     0.375292    Uiso  ? H
   H69        1.0     0.323286     0.046876     0.406255    Uiso  ? H
   H70        1.0     0.459803     0.214623     0.343959    Uiso  ? H
   H71        1.0     0.443284     0.096988     0.438450    Uiso  ? H
   H72        1.0     0.462002     0.214456     0.470497    Uiso  ? H
   H73        1.0     0.460160     0.213814     0.405340    Uiso  ? H
   H74        1.0     0.454730     0.091575     0.500276    Uiso  ? H
   H75        1.0     0.262740     0.220293     0.619389    Uiso  ? H
   H76        1.0     0.222358     0.048238     0.597280    Uiso  ? H
   H77        1.0     0.065673     0.198820     0.596397    Uiso  ? H
   H78        1.0     0.335689     0.039013     0.597969    Uiso  ? H
   H79        1.0     0.455591     0.213362     0.596941    Uiso  ? H
   H80        1.0     0.078651     0.078534     0.563513    Uiso  ? H
   H81        1.0     0.076043     0.333162     0.562344    Uiso  ? H
   H82        1.0     0.320055     0.294390     0.599743    Uiso  ? H
   H83        1.0     0.330794     0.050414     0.534282    Uiso  ? H
   H84        1.0     0.217744     0.054856     0.534817    Uiso  ? H
   H85        1.0     0.069525     0.198725     0.533202    Uiso  ? H
   H86        1.0     0.442500     0.098562     0.563369    Uiso  ? H
   H87        1.0     0.208171     0.178099     0.564013    Uiso  ? H
   H88        1.0     0.206992     0.301270     0.535747    Uiso  ? H
   H89        1.0     0.320151     0.303899     0.536274    Uiso  ? H
   H90        1.0     0.320935     0.178217     0.563752    Uiso  ? H
   H91        1.0     0.206253     0.293726     0.598934    Uiso  ? H
   H92        1.0     0.471671     0.215661     0.531500    Uiso  ? H
   H93        1.0     0.326231     0.190728     0.501488    Uiso  ? H
   H94        1.0     0.071137     0.081173     0.499323    Uiso  ? H
   H95        1.0     0.214124     0.181464     0.502714    Uiso  ? H
   H96        1.0     0.320399     0.440306     0.183515    Uiso  ? H
   H97        1.0     0.296066     0.440100     0.055765    Uiso  ? H
   H98        1.0     0.445036     0.597936     0.122954    Uiso  ? H
   H99        1.0     0.200644     0.566373     0.092812    Uiso  ? H
   H100       1.0     0.447541     0.350372     0.057420    Uiso  ? H
   H101       1.0     0.204576     0.552819     0.218200    Uiso  ? H
   H102       1.0     0.459523     0.467985     0.217871    Uiso  ? H
   H103       1.0     0.183309     0.449687     0.058235    Uiso  ? H
   H104       1.0     0.444150     0.345696     0.247650    Uiso  ? H
   H105       1.0     0.444412     0.461791     0.153092    Uiso  ? H
   H106       1.0     0.456687     0.342091     0.121322    Uiso  ? H
   H107       1.0     0.065403     0.590955     0.186267    Uiso  ? H
   H108       1.0     0.447152     0.466506     0.091964    Uiso  ? H
   H109       1.0     0.244837     0.518164     0.037260    Uiso  ? H
   H110       1.0     0.323497     0.434514     0.248217    Uiso  ? H
   H111       1.0    -0.004338     0.418375     0.037491    Uiso  ? H
   H112       1.0     0.306626     0.562333     0.153159    Uiso  ? H
   H113       1.0     0.054053     0.463220     0.091578    Uiso  ? H
   H114       1.0     0.310597     0.440122     0.121813    Uiso  ? H
   H115       1.0     0.317729     0.555921     0.217553    Uiso  ? H
   H116       1.0     0.060490     0.461707     0.217043    Uiso  ? H
   H117       1.0     0.210160     0.428677     0.247077    Uiso  ? H
   H118       1.0     0.058689     0.585403     0.123139    Uiso  ? H
   H119       1.0     0.442990     0.592585     0.058806    Uiso  ? H
   H120       1.0     0.060513     0.585241     0.058082    Uiso  ? H
   H121       1.0     0.061912     0.457834     0.153431    Uiso  ? H
   H122       1.0     0.194131     0.555413     0.155494    Uiso  ? H
   H123       1.0     0.197445     0.439073     0.122297    Uiso  ? H
   H124       1.0     0.207967     0.434012     0.185571    Uiso  ? H
   H125       1.0     0.312273     0.556753     0.090086    Uiso  ? H
   H126       1.0     0.445699     0.595252     0.184790    Uiso  ? H
   H127       1.0     0.452187     0.344273     0.185429    Uiso  ? H
   H128       1.0     0.439593     0.598193     0.247440    Uiso  ? H
   H129       1.0     0.066362     0.596407     0.249861    Uiso  ? H
   H130       1.0     0.068297     0.341829     0.120617    Uiso  ? H
   H131       1.0     0.060628     0.346885     0.055981    Uiso  ? H
   H132       1.0     0.071072     0.342191     0.186396    Uiso  ? H
   H133       1.0    -0.003607     0.651508     0.036307    Uiso  ? H
   H134       1.0     0.068512     0.336366     0.437467    Uiso  ? H
   H135       1.0     0.196521     0.560380     0.403337    Uiso  ? H
   H136       1.0     0.310145     0.436969     0.374772    Uiso  ? H
   H137       1.0     0.069752     0.334775     0.374071    Uiso  ? H
   H138       1.0     0.191976     0.443353     0.436979    Uiso  ? H
   H139       1.0     0.451320     0.461992     0.280667    Uiso  ? H
   H140       1.0     0.061787     0.589331     0.310493    Uiso  ? H
   H141       1.0     0.079623     0.343765     0.310282    Uiso  ? H
   H142       1.0     0.309482     0.558148     0.403812    Uiso  ? H
   H143       1.0     0.303797     0.435273     0.434171    Uiso  ? H
   H144       1.0     0.323866     0.551284     0.465994    Uiso  ? H
   H145       1.0     0.451034     0.594739     0.437865    Uiso  ? H
   H146       1.0     0.063968     0.585073     0.374688    Uiso  ? H
   H147       1.0     0.212460     0.563991     0.468467    Uiso  ? H
   H148       1.0     0.443679     0.594197     0.311013    Uiso  ? H
   H149       1.0     0.061066     0.455630     0.405315    Uiso  ? H
   H150       1.0     0.195921     0.549515     0.339441    Uiso  ? H
   H151       1.0     0.196737     0.434609     0.374678    Uiso  ? H
   H152       1.0     0.307869     0.555201     0.341956    Uiso  ? H
   H153       1.0     0.308812     0.555603     0.280157    Uiso  ? H
   H154       1.0     0.451964     0.458906     0.407619    Uiso  ? H
   H155       1.0     0.061095     0.458286     0.344140    Uiso  ? H
   H156       1.0     0.456566     0.464274     0.345225    Uiso  ? H
   H157       1.0     0.069710     0.586279     0.437465    Uiso  ? H
   H158       1.0     0.444354     0.338910     0.439097    Uiso  ? H
   H159       1.0     0.209650     0.424888     0.310710    Uiso  ? H
   H160       1.0     0.196654     0.544827     0.279152    Uiso  ? H
   H161       1.0     0.062563     0.461880     0.278983    Uiso  ? H
   H162       1.0     0.057769     0.459726     0.468258    Uiso  ? H
   H163       1.0     0.321999     0.435524     0.311600    Uiso  ? H
   H164       1.0     0.447229     0.459754     0.469803    Uiso  ? H
   H165       1.0     0.446400     0.592501     0.374616    Uiso  ? H
   H166       1.0     0.447261     0.342911     0.313143    Uiso  ? H
   H167       1.0     0.441792     0.342582     0.374937    Uiso  ? H
   H168       1.0     0.313376     0.431534     0.560709    Uiso  ? H
   H169       1.0     0.276404     0.478164     0.615043    Uiso  ? H
   H170       1.0     0.210708     0.550134     0.598566    Uiso  ? H
   H171       1.0     0.322840     0.554409     0.592655    Uiso  ? H
   H172       1.0     0.074804     0.584722     0.560583    Uiso  ? H
   H173       1.0     0.201524     0.439056     0.562108    Uiso  ? H
   H174       1.0     0.199847     0.440552     0.498249    Uiso  ? H
   H175       1.0     0.074799     0.451925     0.595959    Uiso  ? H
   H176       1.0     0.311540     0.433175     0.498326    Uiso  ? H
   H177       1.0     0.207476     0.558667     0.530674    Uiso  ? H
   H178       1.0     0.320616     0.553287     0.529998    Uiso  ? H
   H179       1.0     0.458070     0.588533     0.565021    Uiso  ? H
   H180       1.0     0.071409     0.455223     0.531946    Uiso  ? H
   H181       1.0     0.445578     0.458616     0.597670    Uiso  ? H
   H182       1.0     0.452748     0.592161     0.499689    Uiso  ? H
   H183       1.0     0.442474     0.458035     0.535789    Uiso  ? H
   H184       1.0     0.076026     0.338508     0.499580    Uiso  ? H
   H185       1.0     0.066200     0.584348     0.501169    Uiso  ? H
   H186       1.0     0.523295     0.635481     0.617921    Uiso  ? H
   H187       1.0     0.454462     0.334340     0.566083    Uiso  ? H
   H188       1.0     0.446700     0.339396     0.503182    Uiso  ? H
   H189       1.0     0.198681     0.695744     0.057019    Uiso  ? H
   H190       1.0     0.062371     0.836365     0.247466    Uiso  ? H
   H191       1.0     0.060122     0.846270     0.058327    Uiso  ? H
   H192       1.0     0.306837     0.695593     0.119657    Uiso  ? H
   H193       1.0     0.188401    -0.064906     0.184699    Uiso  ? H
   H194       1.0     0.438485     0.851454     0.185314    Uiso  ? H
   H195       1.0     0.311470     0.705354     0.058539    Uiso  ? H
   H196       1.0     0.190096     0.807146     0.154989    Uiso  ? H
   H197       1.0     0.186833    -0.062693     0.121861    Uiso  ? H
   H198       1.0     0.301254    -0.066913     0.182862    Uiso  ? H
   H199       1.0     0.060450     0.842425     0.121881    Uiso  ? H
   H200       1.0     0.177413    -0.055819     0.057332    Uiso  ? H
   H201       1.0     0.049346     0.962388     0.153664    Uiso  ? H
   H202       1.0     0.442340     0.716660     0.089310    Uiso  ? H
   H203       1.0     0.202295     0.683060     0.183802    Uiso  ? H
   H204       1.0     0.310546     0.685526     0.246434    Uiso  ? H
   H205       1.0     0.064061     0.955875     0.215956    Uiso  ? H
   H206       1.0     0.051138     0.964977     0.091875    Uiso  ? H
   H207       1.0     0.315218     0.691218     0.182925    Uiso  ? H
   H208       1.0     0.248935     0.772229     0.036745    Uiso  ? H
   H209       1.0     0.197725     0.684684     0.247152    Uiso  ? H
   H210       1.0     0.449198     0.972371     0.154848    Uiso  ? H
   H211       1.0     0.303159     0.814121     0.153327    Uiso  ? H
   H212       1.0     0.057111     0.837593     0.183615    Uiso  ? H
   H213       1.0     0.195953    -0.069080     0.248040    Uiso  ? H
   H214       1.0     0.309163    -0.068505     0.246771    Uiso  ? H
   H215       1.0     0.051400     0.705024     0.089198    Uiso  ? H
   H216       1.0     0.448618     0.717597     0.155409    Uiso  ? H
   H217       1.0     0.440945     0.970775     0.090700    Uiso  ? H
   H218       1.0     0.300272    -0.059032     0.120479    Uiso  ? H
   H219       1.0     0.052577     0.709416     0.153005    Uiso  ? H
   H220       1.0     0.058439     0.713317     0.216027    Uiso  ? H
   H221       1.0     0.290241    -0.061309     0.057865    Uiso  ? H
   H222       1.0     0.305549     0.808982     0.215875    Uiso  ? H
   H223       1.0     0.194787     0.691207     0.120924    Uiso  ? H
   H224       1.0     0.184972     0.812938     0.091007    Uiso  ? H
   H225       1.0     0.192512     0.803000     0.215575    Uiso  ? H
   H226       1.0     0.297385     0.821839     0.091695    Uiso  ? H
   H227       1.0     0.436917     0.854072     0.057483    Uiso  ? H
   H228       1.0     0.436643     0.852280     0.122317    Uiso  ? H
   H229       1.0     0.447414     0.970596     0.216907    Uiso  ? H
   H230       1.0     0.453608     0.716548     0.215808    Uiso  ? H
   H231       1.0     0.438089     0.847710     0.246256    Uiso  ? H
   H232       1.0     0.002309     0.917504     0.036754    Uiso  ? H
   H233       1.0     0.237986     0.013890     0.036646    Uiso  ? H
   H234       1.0     0.198541    -0.062582     0.439114    Uiso  ? H
   H235       1.0     0.313841    -0.070205     0.310384    Uiso  ? H
   H236       1.0     0.448096     0.845126     0.373456    Uiso  ? H
   H237       1.0     0.060225     0.833212     0.311799    Uiso  ? H
   H238       1.0     0.203812     0.681419     0.310836    Uiso  ? H
   H239       1.0     0.322445     0.682770     0.373307    Uiso  ? H
   H240       1.0     0.451658     0.963916     0.279841    Uiso  ? H
   H241       1.0     0.070700     0.841851     0.373688    Uiso  ? H
   H242       1.0     0.072579     0.705203     0.405696    Uiso  ? H
   H243       1.0     0.210064     0.679567     0.373802    Uiso  ? H
   H244       1.0     0.445024     0.842810     0.310819    Uiso  ? H
   H245       1.0     0.310342     0.806058     0.278816    Uiso  ? H
   H246       1.0     0.217769     0.813508     0.467482    Uiso  ? H
   H247       1.0     0.310705    -0.072150     0.438669    Uiso  ? H
   H248       1.0     0.062300     0.705990     0.470231    Uiso  ? H
   H249       1.0     0.329787     0.800003     0.468607    Uiso  ? H
   H250       1.0     0.067139     0.706816     0.343770    Uiso  ? H
   H251       1.0     0.467133     0.713339     0.405360    Uiso  ? H
   H252       1.0     0.078853     0.842894     0.435412    Uiso  ? H
   H253       1.0     0.317716     0.801923     0.341536    Uiso  ? H
   H254       1.0     0.470313     0.964396     0.468736    Uiso  ? H
   H255       1.0     0.065987     0.955791     0.281080    Uiso  ? H
   H256       1.0     0.459593     0.712117     0.343287    Uiso  ? H
   H257       1.0     0.197030     0.802821     0.280490    Uiso  ? H
   H258       1.0     0.204627     0.800913     0.342926    Uiso  ? H
   H259       1.0     0.316288     0.683166     0.309321    Uiso  ? H
   H260       1.0     0.464545     0.713507     0.468848    Uiso  ? H
   H261       1.0     0.317729    -0.070713     0.374233    Uiso  ? H
   H262       1.0     0.204583    -0.070369     0.375651    Uiso  ? H
   H263       1.0     0.058680     0.959798     0.341359    Uiso  ? H
   H264       1.0     0.064072     0.962968     0.405604    Uiso  ? H
   H265       1.0     0.460504     0.843123     0.437126    Uiso  ? H
   H266       1.0     0.322356     0.800528     0.405671    Uiso  ? H
   H267       1.0     0.064315     0.960585     0.468390    Uiso  ? H
   H268       1.0     0.060204     0.714355     0.281926    Uiso  ? H
   H269       1.0     0.315460     0.680448     0.438241    Uiso  ? H
   H270       1.0     0.200886    -0.071994     0.312123    Uiso  ? H
   H271       1.0     0.209675     0.802843     0.404666    Uiso  ? H
   H272       1.0     0.202422     0.688545     0.438721    Uiso  ? H
   H273       1.0     0.461945     0.964698     0.405497    Uiso  ? H
   H274       1.0     0.458726     0.964848     0.341431    Uiso  ? H
   H275       1.0     0.454558     0.715142     0.280202    Uiso  ? H
   H276       1.0     0.202180     0.686609     0.562341    Uiso  ? H
   H277       1.0     0.314466     0.683573     0.561540    Uiso  ? H
   H278       1.0     0.466808     0.965055     0.530562    Uiso  ? H
   H279       1.0     0.081885     0.837576     0.562543    Uiso  ? H
   H280       1.0     0.009065     0.878955     0.615635    Uiso  ? H
   H281       1.0     0.319870     0.799177     0.597131    Uiso  ? H
   H282       1.0     0.258495     0.729266     0.617005    Uiso  ? H
   H283       1.0     0.457235     0.708066     0.533767    Uiso  ? H
   H284       1.0     0.318443     0.807308     0.532411    Uiso  ? H
   H285       1.0     0.206425     0.803837     0.596295    Uiso  ? H
   H286       1.0     0.325332    -0.074557     0.561864    Uiso  ? H
   H287       1.0     0.271108    -0.029014     0.617889    Uiso  ? H
   H288       1.0     0.063976     0.953995     0.595600    Uiso  ? H
   H289       1.0     0.066989     0.700236     0.596660    Uiso  ? H
   H290       1.0     0.070206     0.956082     0.530714    Uiso  ? H
   H291       1.0     0.212683    -0.068814     0.563299    Uiso  ? H
   H292       1.0     0.056696     0.706793     0.531911    Uiso  ? H
   H293       1.0     0.205367     0.809216     0.532473    Uiso  ? H
   H294       1.0     0.480007     0.969860     0.596912    Uiso  ? H
   H295       1.0     0.450135     0.850065     0.563446    Uiso  ? H
   H296       1.0     0.463404     0.706442     0.597429    Uiso  ? H
   H297       1.0     0.310380     0.683875     0.501732    Uiso  ? H
   H298       1.0     0.079795     0.838709     0.498490    Uiso  ? H
   H299       1.0     0.458656     0.842593     0.499639    Uiso  ? H
   H300       1.0     0.214449    -0.065636     0.501493    Uiso  ? H
   H301       1.0     0.326785    -0.062940     0.499323    Uiso  ? H
   H302       1.0     0.198445     0.693735     0.499761    Uiso  ? H
   H303       1.0     0.565072     0.212224     0.155278    Uiso  ? H
   H304       1.0    -0.244730     0.319156     0.037564    Uiso  ? H
   H305       1.0    -0.051431     0.083004     0.248362    Uiso  ? H
   H306       1.0    -0.055209     0.205053     0.154993    Uiso  ? H
   H307       1.0    -0.244666     0.074036     0.037797    Uiso  ? H
   H308       1.0    -0.302830     0.235221     0.250214    Uiso  ? H
   H309       1.0     0.552382     0.087155     0.249813    Uiso  ? H
   H310       1.0     0.554071     0.098238     0.058640    Uiso  ? H
   H311       1.0    -0.052030     0.202966     0.217994    Uiso  ? H
   H312       1.0     0.565837     0.206057     0.218112    Uiso  ? H
   H313       1.0     0.552529     0.088327     0.184850    Uiso  ? H
   H314       1.0    -0.193912     0.227274     0.184991    Uiso  ? H
   H315       1.0    -0.299797     0.112792     0.155415    Uiso  ? H
   H316       1.0    -0.302153     0.238357     0.120635    Uiso  ? H
   H317       1.0    -0.187521     0.111592     0.154916    Uiso  ? H
   H318       1.0    -0.187847     0.234015     0.120372    Uiso  ? H
   H319       1.0    -0.309915     0.110777     0.092724    Uiso  ? H
   H320       1.0    -0.188805     0.243602     0.055823    Uiso  ? H
   H321       1.0    -0.052576     0.207419     0.091609    Uiso  ? H
   H322       1.0     0.555155     0.096519     0.120707    Uiso  ? H
   H323       1.0     0.559967     0.220259     0.090154    Uiso  ? H
   H324       1.0    -0.050393     0.084025     0.185304    Uiso  ? H
   H325       1.0    -0.302054     0.246281     0.057300    Uiso  ? H
   H326       1.0    -0.306795     0.235812     0.184191    Uiso  ? H
   H327       1.0    -0.197195     0.117435     0.091883    Uiso  ? H
   H328       1.0    -0.302111     0.108143     0.217276    Uiso  ? H
   H329       1.0    -0.189429     0.108958     0.218315    Uiso  ? H
   H330       1.0    -0.189743     0.232916     0.250378    Uiso  ? H
   H331       1.0    -0.043422     0.088941     0.056493    Uiso  ? H
   H332       1.0    -0.053450     0.087323     0.121887    Uiso  ? H
   H333       1.0     0.504238     0.171649     0.036218    Uiso  ? H
   H334       1.0    -0.052416     0.340635     0.057745    Uiso  ? H
   H335       1.0     0.564313     0.345417     0.183457    Uiso  ? H
   H336       1.0    -0.045143     0.332967     0.122218    Uiso  ? H
   H337       1.0    -0.044325     0.336427     0.248827    Uiso  ? H
   H338       1.0     0.569425     0.350065     0.121854    Uiso  ? H
   H339       1.0     0.561962     0.351087     0.057498    Uiso  ? H
   H340       1.0    -0.288567     0.111313     0.470515    Uiso  ? H
   H341       1.0    -0.186432     0.107334     0.281127    Uiso  ? H
   H342       1.0    -0.177735     0.247269     0.437569    Uiso  ? H
   H343       1.0     0.562382     0.090744     0.310200    Uiso  ? H
   H344       1.0    -0.292400     0.239545     0.375024    Uiso  ? H
   H345       1.0    -0.189782     0.241024     0.313334    Uiso  ? H
   H346       1.0    -0.289804     0.238697     0.437713    Uiso  ? H
   H347       1.0    -0.182721     0.240834     0.498915    Uiso  ? H
   H348       1.0    -0.044498     0.080894     0.311712    Uiso  ? H
   H349       1.0     0.560075     0.084321     0.374434    Uiso  ? H
   H350       1.0     0.572733     0.204082     0.344138    Uiso  ? H
   H351       1.0     0.575084     0.204623     0.467440    Uiso  ? H
   H352       1.0    -0.306837     0.105320     0.409057    Uiso  ? H
   H353       1.0    -0.179689     0.246275     0.374322    Uiso  ? H
   H354       1.0    -0.046479     0.202196     0.279799    Uiso  ? H
   H355       1.0    -0.299626     0.107329     0.281993    Uiso  ? H
   H356       1.0    -0.187368     0.109617     0.343508    Uiso  ? H
   H357       1.0     0.572401     0.203764     0.406390    Uiso  ? H
   H358       1.0    -0.302277     0.243100     0.312755    Uiso  ? H
   H359       1.0    -0.176491     0.105833     0.471084    Uiso  ? H
   H360       1.0    -0.053078     0.202246     0.406793    Uiso  ? H
   H361       1.0     0.554753     0.083869     0.437611    Uiso  ? H
   H362       1.0    -0.193908     0.115175     0.407474    Uiso  ? H
   H363       1.0    -0.299752     0.109209     0.343295    Uiso  ? H
   H364       1.0     0.559444     0.212095     0.279811    Uiso  ? H
   H365       1.0    -0.050432     0.201677     0.342598    Uiso  ? H
   H366       1.0    -0.044273     0.081257     0.437818    Uiso  ? H
   H367       1.0    -0.042882     0.082049     0.374168    Uiso  ? H
   H368       1.0    -0.049901     0.199947     0.470570    Uiso  ? H
   H369       1.0    -0.294968     0.237966     0.499910    Uiso  ? H
   H370       1.0    -0.040873     0.078852     0.500637    Uiso  ? H
   H371       1.0    -0.043856     0.330690     0.437485    Uiso  ? H
   H372       1.0    -0.043171     0.329172     0.373750    Uiso  ? H
   H373       1.0    -0.031919     0.329446     0.310033    Uiso  ? H
   H374       1.0     0.567825     0.085532     0.499122    Uiso  ? H
   H375       1.0    -0.293768     0.235779     0.565023    Uiso  ? H
   H376       1.0    -0.228754     0.044153     0.619598    Uiso  ? H
   H377       1.0     0.568673     0.203591     0.598200    Uiso  ? H
   H378       1.0    -0.185267     0.118155     0.595426    Uiso  ? H
   H379       1.0    -0.034612     0.071190     0.563222    Uiso  ? H
   H380       1.0     0.553600     0.082228     0.565876    Uiso  ? H
   H381       1.0    -0.036756     0.330964     0.563127    Uiso  ? H
   H382       1.0     0.502683     0.136821     0.618115    Uiso  ? H
   H383       1.0    -0.297363     0.105850     0.597250    Uiso  ? H
   H384       1.0    -0.181398     0.110030     0.532881    Uiso  ? H
   H385       1.0    -0.293897     0.106391     0.534468    Uiso  ? H
   H386       1.0     0.582401     0.198937     0.533177    Uiso  ? H
   H387       1.0    -0.043278     0.196096     0.533958    Uiso  ? H
   H388       1.0    -0.235953     0.285919     0.617886    Uiso  ? H
   H389       1.0    -0.180757     0.236136     0.563628    Uiso  ? H
   H390       1.0    -0.046694     0.188055     0.595770    Uiso  ? H
   H391       1.0     0.018170     0.122831     0.617986    Uiso  ? H
   H392       1.0     0.566378     0.344323     0.566158    Uiso  ? H
   H393       1.0    -0.035941     0.329105     0.502018    Uiso  ? H
   H394       1.0    -0.301977     0.487561     0.246498    Uiso  ? H
   H395       1.0    -0.292637     0.356829     0.153582    Uiso  ? H
   H396       1.0    -0.306130     0.493934     0.057859    Uiso  ? H
   H397       1.0    -0.053553     0.582071     0.123221    Uiso  ? H
   H398       1.0     0.552185     0.587205     0.247467    Uiso  ? H
   H399       1.0     0.555856     0.595576     0.057591    Uiso  ? H
   H400       1.0     0.503129     0.422644     0.036788    Uiso  ? H
   H401       1.0    -0.046280     0.590665     0.249754    Uiso  ? H
   H402       1.0    -0.058639     0.456049     0.092795    Uiso  ? H
   H403       1.0    -0.185919     0.349502     0.216104    Uiso  ? H
   H404       1.0    -0.195169     0.500664     0.121041    Uiso  ? H
   H405       1.0    -0.307309     0.617590     0.155606    Uiso  ? H
   H406       1.0    -0.183281     0.358129     0.092270    Uiso  ? H
   H407       1.0    -0.192828     0.493460     0.183235    Uiso  ? H
   H408       1.0    -0.040927     0.332688     0.186704    Uiso  ? H
   H409       1.0     0.571738     0.457617     0.218414    Uiso  ? H
   H410       1.0    -0.052054     0.455479     0.217484    Uiso  ? H
   H411       1.0     0.559527     0.470920     0.090655    Uiso  ? H
   H412       1.0    -0.193938     0.504911     0.057528    Uiso  ? H
   H413       1.0    -0.185846     0.609069     0.217309    Uiso  ? H
   H414       1.0     0.557564     0.598941     0.120932    Uiso  ? H
   H415       1.0    -0.180532     0.348760     0.154092    Uiso  ? H
   H416       1.0    -0.260333     0.570894     0.036312    Uiso  ? H
   H417       1.0    -0.205906     0.623322     0.090777    Uiso  ? H
   H418       1.0    -0.296000     0.362543     0.092274    Uiso  ? H
   H419       1.0    -0.299390     0.612205     0.218718    Uiso  ? H
   H420       1.0    -0.306129     0.494202     0.185259    Uiso  ? H
   H421       1.0    -0.194803     0.616965     0.154638    Uiso  ? H
   H422       1.0     0.557602     0.469682     0.154003    Uiso  ? H
   H423       1.0     0.559604     0.591803     0.184452    Uiso  ? H
   H424       1.0    -0.308145     0.496579     0.122968    Uiso  ? H
   H425       1.0    -0.318431     0.616011     0.090690    Uiso  ? H
   H426       1.0    -0.298577     0.354134     0.216546    Uiso  ? H
   H427       1.0    -0.051219     0.454648     0.154270    Uiso  ? H
   H428       1.0    -0.053044     0.577272     0.058507    Uiso  ? H
   H429       1.0    -0.046592     0.583561     0.187521    Uiso  ? H
   H430       1.0     0.556736     0.336896     0.248903    Uiso  ? H
   H431       1.0     0.495825     0.664561     0.036166    Uiso  ? H
   H432       1.0    -0.306127     0.605258     0.341834    Uiso  ? H
   H433       1.0    -0.193699     0.486038     0.437164    Uiso  ? H
   H434       1.0    -0.187343     0.604008     0.279784    Uiso  ? H
   H435       1.0    -0.189445     0.365719     0.470157    Uiso  ? H
   H436       1.0     0.556602     0.584939     0.309209    Uiso  ? H
   H437       1.0    -0.303489     0.485876     0.311068    Uiso  ? H
   H438       1.0    -0.302235     0.358604     0.469067    Uiso  ? H
   H439       1.0    -0.187546     0.608020     0.404653    Uiso  ? H
   H440       1.0    -0.189870     0.485217     0.311573    Uiso  ? H
   H441       1.0    -0.181597     0.608411     0.467604    Uiso  ? H
   H442       1.0     0.557953     0.580291     0.373048    Uiso  ? H
   H443       1.0    -0.049738     0.453102     0.280471    Uiso  ? H
   H444       1.0     0.569393     0.454469     0.345678    Uiso  ? H
   H445       1.0    -0.052146     0.449843     0.405191    Uiso  ? H
   H446       1.0    -0.051116     0.590933     0.311846    Uiso  ? H
   H447       1.0    -0.042623     0.584884     0.435621    Uiso  ? H
   H448       1.0    -0.189084     0.365060     0.342864    Uiso  ? H
   H449       1.0    -0.185338     0.489503     0.372917    Uiso  ? H
   H450       1.0    -0.299685     0.359820     0.278948    Uiso  ? H
   H451       1.0     0.564396     0.454324     0.407440    Uiso  ? H
   H452       1.0    -0.186409     0.357454     0.278674    Uiso  ? H
   H453       1.0    -0.053968     0.447248     0.470069    Uiso  ? H
   H454       1.0     0.563249     0.582942     0.437587    Uiso  ? H
   H455       1.0    -0.193112     0.608567     0.341048    Uiso  ? H
   H456       1.0    -0.187236     0.365797     0.406196    Uiso  ? H
   H457       1.0    -0.299097     0.360155     0.406076    Uiso  ? H
   H458       1.0    -0.048819     0.589750     0.375845    Uiso  ? H
   H459       1.0     0.564466     0.457723     0.280757    Uiso  ? H
   H460       1.0    -0.298279     0.484676     0.374141    Uiso  ? H
   H461       1.0     0.558698     0.337599     0.312638    Uiso  ? H
   H462       1.0     0.560254     0.458002     0.470079    Uiso  ? H
   H463       1.0    -0.306270     0.494743     0.437671    Uiso  ? H
   H464       1.0    -0.294285     0.613427     0.469283    Uiso  ? H
   H465       1.0    -0.300497     0.608444     0.404248    Uiso  ? H
   H466       1.0    -0.301338     0.362119     0.344765    Uiso  ? H
   H467       1.0    -0.300249     0.606474     0.279458    Uiso  ? H
   H468       1.0    -0.050748     0.448264     0.342088    Uiso  ? H
   H469       1.0    -0.296126     0.488739     0.498803    Uiso  ? H
   H470       1.0     0.557462     0.334943     0.440159    Uiso  ? H
   H471       1.0     0.554467     0.331834     0.375136    Uiso  ? H
   H472       1.0     0.559470     0.340791     0.503664    Uiso  ? H
   H473       1.0    -0.189080     0.486345     0.247313    Uiso  ? H
   H474       1.0    -0.046309     0.580687     0.499968    Uiso  ? H
   H475       1.0    -0.183570     0.608226     0.531423    Uiso  ? H
   H476       1.0    -0.296310     0.605129     0.533045    Uiso  ? H
   H477       1.0     0.570974     0.585726     0.563113    Uiso  ? H
   H478       1.0    -0.184248     0.358431     0.532911    Uiso  ? H
   H479       1.0    -0.038062     0.575732     0.563379    Uiso  ? H
   H480       1.0     0.558125     0.458303     0.600133    Uiso  ? H
   H481       1.0    -0.175180     0.486267     0.561707    Uiso  ? H
   H482       1.0     0.564275     0.585168     0.500729    Uiso  ? H
   H483       1.0    -0.231499     0.533298     0.617085    Uiso  ? H
   H484       1.0    -0.288199     0.482450     0.563108    Uiso  ? H
   H485       1.0    -0.041447     0.453275     0.532573    Uiso  ? H
   H486       1.0     0.554664     0.463353     0.535217    Uiso  ? H
   H487       1.0     0.499312     0.388029     0.620670    Uiso  ? H
   H488       1.0    -0.288301     0.604209     0.595800    Uiso  ? H
   H489       1.0    -0.296902     0.357030     0.533147    Uiso  ? H
   H490       1.0    -0.175141     0.603706     0.595598    Uiso  ? H
   H491       1.0    -0.036991     0.445044     0.599658    Uiso  ? H
   H492       1.0     0.029247     0.374530     0.617436    Uiso  ? H
   H493       1.0     0.026699     0.619315     0.617222    Uiso  ? H
   H494       1.0    -0.288783     0.358682     0.596113    Uiso  ? H
   H495       1.0    -0.175467     0.353894     0.596133    Uiso  ? H
   H496       1.0    -0.183506     0.488281     0.498686    Uiso  ? H
   H497       1.0    -0.203053     0.759685     0.056521    Uiso  ? H
   H498       1.0    -0.186772    -0.009138     0.185025    Uiso  ? H
   H499       1.0    -0.060510     0.699489     0.089727    Uiso  ? H
   H500       1.0    -0.183143     0.747463     0.184951    Uiso  ? H
   H501       1.0     0.499388     0.921394     0.036154    Uiso  ? H
   H502       1.0     0.549967     0.847336     0.058276    Uiso  ? H
   H503       1.0    -0.311711     0.876326     0.092898    Uiso  ? H
   H504       1.0    -0.306247     0.751096     0.120798    Uiso  ? H
   H505       1.0    -0.193148     0.753423     0.119502    Uiso  ? H
   H506       1.0    -0.300601    -0.010670     0.185035    Uiso  ? H
   H507       1.0    -0.190548     0.865171     0.218067    Uiso  ? H
   H508       1.0    -0.302782    -0.010829     0.249647    Uiso  ? H
   H509       1.0     0.549005     0.846136     0.120945    Uiso  ? H
   H510       1.0     0.553491     0.970284     0.090628    Uiso  ? H
   H511       1.0    -0.199446     0.877186     0.090773    Uiso  ? H
   H512       1.0    -0.316470     0.758440     0.059038    Uiso  ? H
   H513       1.0     0.562605     0.963554     0.153602    Uiso  ? H
   H514       1.0    -0.303658     0.860322     0.218020    Uiso  ? H
   H515       1.0    -0.295983     0.740700     0.186048    Uiso  ? H
   H516       1.0     0.560591     0.963777     0.217042    Uiso  ? H
   H517       1.0    -0.306657     0.864820     0.156892    Uiso  ? H
   H518       1.0    -0.060646     0.958180     0.091402    Uiso  ? H
   H519       1.0    -0.187334    -0.005181     0.121828    Uiso  ? H
   H520       1.0     0.550464     0.843234     0.185280    Uiso  ? H
   H521       1.0     0.561286     0.716336     0.154183    Uiso  ? H
   H522       1.0    -0.263477     0.831170     0.036802    Uiso  ? H
   H523       1.0     0.566213     0.709349     0.216844    Uiso  ? H
   H524       1.0    -0.194319     0.869446     0.154330    Uiso  ? H
   H525       1.0    -0.048612     0.959268     0.217153    Uiso  ? H
   H526       1.0    -0.063449     0.953816     0.152846    Uiso  ? H
   H527       1.0     0.554396     0.716408     0.088557    Uiso  ? H
   H528       1.0    -0.300356    -0.009242     0.123488    Uiso  ? H
   H529       1.0    -0.054898     0.837760     0.185669    Uiso  ? H
   H530       1.0    -0.189856    -0.013045     0.248839    Uiso  ? H
   H531       1.0    -0.297655     0.737742     0.248028    Uiso  ? H
   H532       1.0    -0.053857     0.708049     0.216293    Uiso  ? H
   H533       1.0    -0.059809     0.701966     0.154308    Uiso  ? H
   H534       1.0    -0.052991     0.836052     0.120971    Uiso  ? H
   H535       1.0    -0.052999     0.843000     0.056759    Uiso  ? H
   H536       1.0    -0.050474     0.838073     0.248756    Uiso  ? H
   H537       1.0    -0.184129     0.742073     0.247315    Uiso  ? H
   H538       1.0    -0.307046     0.001279     0.055578    Uiso  ? H
   H539       1.0    -0.194022    -0.003264     0.057736    Uiso  ? H
   H540       1.0    -0.297540     0.736476     0.375419    Uiso  ? H
   H541       1.0    -0.184415     0.730722     0.374019    Uiso  ? H
   H542       1.0     0.557169     0.835974     0.309035    Uiso  ? H
   H543       1.0    -0.033264     0.832029     0.436206    Uiso  ? H
   H544       1.0    -0.291100     0.857911     0.344782    Uiso  ? H
   H545       1.0    -0.172340     0.848480     0.406422    Uiso  ? H
   H546       1.0    -0.046881     0.957828     0.280403    Uiso  ? H
   H547       1.0     0.560585     0.836175     0.372902    Uiso  ? H
   H548       1.0     0.564466     0.957103     0.278779    Uiso  ? H
   H549       1.0    -0.041118     0.835026     0.375384    Uiso  ? H
   H550       1.0    -0.045722     0.709997     0.344533    Uiso  ? H
   H551       1.0    -0.297561    -0.012987     0.313011    Uiso  ? H
   H552       1.0    -0.186676     0.857269     0.281043    Uiso  ? H
   H553       1.0     0.578768     0.700644     0.404215    Uiso  ? H
   H554       1.0     0.577857     0.704969     0.468938    Uiso  ? H
   H555       1.0    -0.047473     0.949832     0.468385    Uiso  ? H
   H556       1.0     0.573230     0.839602     0.435250    Uiso  ? H
   H557       1.0    -0.283558     0.861315     0.468676    Uiso  ? H
   H558       1.0    -0.171722     0.847889     0.469355    Uiso  ? H
   H559       1.0     0.574855     0.958018     0.402583    Uiso  ? H
   H560       1.0    -0.284758     0.857610     0.406604    Uiso  ? H
   H561       1.0    -0.299551     0.857610     0.281209    Uiso  ? H
   H562       1.0    -0.190938     0.732184     0.310749    Uiso  ? H
   H563       1.0    -0.296341     0.737056     0.438149    Uiso  ? H
   H564       1.0    -0.179202     0.851890     0.343212    Uiso  ? H
   H565       1.0    -0.048801     0.954681     0.406813    Uiso  ? H
   H566       1.0    -0.303479     0.739349     0.312426    Uiso  ? H
   H567       1.0    -0.050140     0.701475     0.468843    Uiso  ? H
   H568       1.0     0.570801     0.955060     0.340240    Uiso  ? H
   H569       1.0    -0.051704     0.836850     0.311035    Uiso  ? H
   H570       1.0     0.566984     0.707379     0.279657    Uiso  ? H
   H571       1.0     0.571968     0.702396     0.342083    Uiso  ? H
   H572       1.0    -0.041044     0.709690     0.407037    Uiso  ? H
   H573       1.0    -0.184328    -0.011610     0.313421    Uiso  ? H
   H574       1.0    -0.053504     0.953743     0.342877    Uiso  ? H
   H575       1.0    -0.184255     0.729321     0.438746    Uiso  ? H
   H576       1.0    -0.052679     0.711676     0.281622    Uiso  ? H
   H577       1.0     0.583159     0.956149     0.468783    Uiso  ? H
   H578       1.0    -0.291588    -0.014216     0.440064    Uiso  ? H
   H579       1.0    -0.180029    -0.008973     0.437032    Uiso  ? H
   H580       1.0    -0.185448    -0.007999     0.376810    Uiso  ? H
   H581       1.0    -0.297985    -0.011380     0.375422    Uiso  ? H
   H582       1.0     0.550203     0.839239     0.245304    Uiso  ? H
   H583       1.0    -0.174391     0.852492     0.594934    Uiso  ? H
   H584       1.0    -0.290244     0.863592     0.531809    Uiso  ? H
   H585       1.0    -0.177598     0.855400     0.532038    Uiso  ? H
   H586       1.0    -0.042818     0.949234     0.531341    Uiso  ? H
   H587       1.0     0.560432     0.833480     0.562759    Uiso  ? H
   H588       1.0     0.576856     0.707234     0.594929    Uiso  ? H
   H589       1.0     0.513575     0.887387     0.617545    Uiso  ? H
   H590       1.0    -0.189984     0.732915     0.562217    Uiso  ? H
   H591       1.0    -0.033334     0.829395     0.499647    Uiso  ? H
   H592       1.0    -0.287001     0.859981     0.597524    Uiso  ? H
   H593       1.0    -0.232626     0.784383     0.617282    Uiso  ? H
   H594       1.0    -0.301963     0.743457     0.563543    Uiso  ? H
   H595       1.0    -0.283454    -0.015671     0.566312    Uiso  ? H
   H596       1.0     0.589093     0.945144     0.596946    Uiso  ? H
   H597       1.0     0.578851     0.956656     0.531585    Uiso  ? H
   H598       1.0    -0.030553     0.825980     0.560846    Uiso  ? H
   H599       1.0    -0.045217     0.687714     0.600564    Uiso  ? H
   H600       1.0     0.570648     0.708261     0.532423    Uiso  ? H
   H601       1.0    -0.055687     0.697044     0.533262    Uiso  ? H
   H602       1.0    -0.171402    -0.006291     0.566011    Uiso  ? H
   H603       1.0    -0.049065     0.945875     0.592558    Uiso  ? H
   H604       1.0    -0.190226     0.732335     0.502873    Uiso  ? H
   H605       1.0    -0.296355    -0.010000     0.501833    Uiso  ? H
   H606       1.0    -0.183236    -0.014423     0.502824    Uiso  ? H
   H607       1.0    -0.302338     0.743178     0.501510    Uiso  ? H
   H608       1.0     0.572172     0.836315     0.500818    Uiso  ? H
